final_agricultural_upload_v3/one_season_examples_results/second_results/final_80houses_one_season_400battery.glm

//Input feeder information for Taxonomy Feeders with different cases.
//Started on 10/21/09. This version created 28-Aug-2015 14:17:17.
// This version was created to perform FY11 Department of Energy
// analysis on the benefits of the SGIG grant projects.

clock {
      timezone PST+8PDT;
     starttime '2000-08-01 00:00:00';
     stoptime '2000-08-04 00:00:00';
}

#include "appliance_schedules.glm";

#include "light_schedule.glm";
#include "water_and_setpoint_schedule.glm";
#include "commercial_schedules.glm";

#include "commercial_schedules.glm";
#include "daily_elasticity_schedules.glm";
//#define stylesheet=http://gridlab-d.svn.sourceforge.net/viewvc/gridlab-d/trunk/core/gridlabd-2_0
#set minimum_timestep=60;
#set profiler=1;
#set relax_naming_rules=1;

module tape;
module climate;
module generators;
module residential {
     implicit_enduses NONE;
};
module powerflow {
  //   solver_method NR;
     NR_iteration_limit 50;
};

class player {
     double value;
};

module market;

class auction {
     double current_price_mean_30min;
     double current_price_stdev_30min;
};


schedule virtual_price {
	* 0-5 * * * 0.25;
	* 6-19 * * * 0.3;
	* 20-23 * * * 0.25;
}

schedule solar_price {
	* 0-3 * * * 0.3;
	* 4-19 * * * 0.25;
	* 20-23 * * * 0.3;
}

schedule wind_price {
	* 0-14 * * * 0.25;
	* 15-17 * * * 0.25;
	* 18-23 * * * 0.25;
}

schedule battery_price {
	* 0-5 * * * 0.25;
	* 6-13 * * * 0.3;
	* 14-23 * * * 0.25;
}
schedule battery_price2 {
	* 0-5 * * * 0.25;
	* 6-13 * * * 0.3;
	* 14-23 * * * 0.25;
}
schedule battery_price3 {
	* 0-5 * * * 0.25;
	* 6-13 * * * 0.3;
	* 14-23 1-2 * * 0.3;
	* 14-23 3-4 * * 0.25;
}
schedule battery_price4 {
	* 0-5 1-2 * * 0.3;
	* 0-5 3-4 * * 0.25;
	* 6-20 * * * 0.3;
	* 21-23 * * * 0.25;
}

schedule battery_price5 {
	* 0-5 1-2 * * 0.25;
	* 0-5 3-4 * * 0.25;
	* 6-13 * * * 0.3;
	* 14-23 * * * 0.25;
}

object auction {
    name Market_1;
    special_mode NONE;
    unit kW;
    period 900;
    init_price 0.30;
    init_stdev 0.00005;
    warmup 0;
    
 //   type 2;
 //town_factory windtown5_692A;
//    second_bidder seller2_town5;

    object multi_recorder {
 	property current_market.clearing_price,current_market.clearing_quantity,current_market.seller_total_quantity,current_market.buyer_total_quantity,current_price_stdev_30min;
 	file "market_5.csv";
 	interval 900;
 	limit 168000000000000000000000000000000000000000000000;
 	};

}

//object stub_bidder{
//         name buyer2_town6;
//        role BUYER;
//       bid_period 900;
//       market Market_1;
//       price 0.52;
//       quantity 0.000000001;
//       count 10000;
//  };

object climate {
     name "Seattle WA";
     tmyfile "WA-Seattle.tmy2";
     interpolate QUADRATIC;
};

//Configurations

object overhead_line_conductor {     
      name overhead_line_conductor_6010;     
      geometric_mean_radius 0.031300; 
      
      resistance 0.185900;     
}       

object overhead_line_conductor {     
      name overhead_line_conductor_6020;     
      geometric_mean_radius 0.00814;     
      resistance 0.592000;     
}       

object overhead_line_conductor {     
      name overhead_line_conductor_6030;     
      geometric_mean_radius 0.004460; 
      //rating.summer.continuous 35;
      //rating.summer.emergency 35;
      resistance 1.120000;     
}       

object underground_line_conductor {     
      name underground_line_conductor_6060;     
      outer_diameter 1.290000;     
      conductor_gmr 0.017100;     
      conductor_diameter 0.567000;     
      conductor_resistance 0.410000;     
      neutral_gmr 0.0020800;     
      neutral_resistance 14.87200;     
      neutral_diameter 0.0640837;     
      neutral_strands 13.000000;     
      shield_gmr 0.000000;     
      shield_resistance 0.000000;     
}       

object underground_line_conductor {     
      name underground_line_conductor_6070;     
      outer_diameter 1.060000;     
      conductor_gmr 0.011100;     
      conductor_diameter 0.368000;     
      conductor_resistance 0.970000;     
      neutral_gmr 0.011100;     
      neutral_resistance 0.970000;     
      neutral_diameter 0.0640837;     
      neutral_strands 6.000000;     
      shield_gmr 0.000000;     
      shield_resistance 0.000000;     
}       

object line_spacing {     
      name line_spacing_500601;     
      distance_AB 2.5;     
      distance_AC 4.5;     
      distance_BC 7.0;     
      distance_BN 5.656854;     
      distance_AN 4.272002;     
      distance_CN 5.0;     
}       

object line_spacing {     
      name line_spacing_500602;     
      distance_AC 2.5;     
      distance_AB 4.5;     
      distance_BC 7.0;     
      distance_CN 5.656854;     
      distance_AN 4.272002;     
      distance_BN 5.0;     
}       

object line_spacing {     
      name line_spacing_505603;     
      distance_AC 0.0;     
      distance_AB 0.0;     
      distance_BC 7.0;     
      distance_AN 0.0;     
      distance_CN 5.656854;     
      distance_BN 5.0;     
}       

object line_spacing {     
      name line_spacing_505604;     
      distance_AC 7.0;     
      distance_AB 0.0;     
      distance_BC 0.0;     
      distance_AN 5.656854;     
      distance_CN 5.0;     
      distance_BN 0.0;     
}       

object line_spacing {     
      name line_spacing_510;     
      distance_AC 0.0;     
      distance_AB 0.0;     
      distance_BC 0.0;     
      distance_AN 0.0;     
      distance_CN 5.0;     
      distance_BN 0.0;     
}       

object line_configuration {     
      name line_configuration_601;     
      conductor_A overhead_line_conductor_6010;     
      conductor_B overhead_line_conductor_6010;     
      conductor_C overhead_line_conductor_6010;     
      conductor_N overhead_line_conductor_6020;     
      spacing line_spacing_500601;     
}       

object line_configuration {     
      name line_configuration_602;     
      conductor_A overhead_line_conductor_6020;     
      conductor_B overhead_line_conductor_6020;     
      conductor_C overhead_line_conductor_6020;     
      conductor_N overhead_line_conductor_6020;     
      spacing line_spacing_500602;     
}       

object line_configuration {     
      name line_configuration_603;     
      conductor_B overhead_line_conductor_6030;     
      conductor_C overhead_line_conductor_6030;     
      conductor_N overhead_line_conductor_6030;     
      spacing line_spacing_505603;     
}       

object line_configuration {     
      name line_configuration_604;     
      conductor_A overhead_line_conductor_6030;     
      conductor_C overhead_line_conductor_6030;     
      conductor_N overhead_line_conductor_6030;     
      spacing line_spacing_505604;     
}       

object line_configuration {     
      name line_configuration_605;     
      conductor_C overhead_line_conductor_6030;     
      conductor_N overhead_line_conductor_6030;     
      spacing line_spacing_510;     
}       

object line_spacing {     
      name line_spacing_515;     
      distance_AB 0.500000;     
      distance_BC 0.500000;     
      distance_AC 1.000000;     
      distance_AN 0.000000;     
      distance_BN 0.000000;     
      distance_CN 0.000000;     
}       

object line_spacing {     
      name line_spacing_520;     
      distance_AB 0.000000;     
      distance_BC 0.000000;     
      distance_AC 0.000000;     
      distance_AN 0.083333;     
      distance_BN 0.000000;     
      distance_CN 0.000000;     
}       

object line_configuration {     
      name line_configuration_606;     
      conductor_A underground_line_conductor_6060;     
      conductor_B underground_line_conductor_6060;     
      conductor_C underground_line_conductor_6060;     
      spacing line_spacing_515;     
}       

object line_configuration {     
      name line_configuration_607;     
      conductor_A underground_line_conductor_6070;     
      conductor_N underground_line_conductor_6070;     
      spacing line_spacing_520;     
}       

object transformer_configuration {     
      name transformer_configuration_400;     
      connect_type WYE_WYE;     
      install_type PADMOUNT;     
      power_rating 500;     
      primary_voltage 4160;     
      secondary_voltage 480;     
      resistance 0.011;     
      reactance 0.02;     
}       

object regulator_configuration {     
      name regulator_configuration_6506321;     
      connect_type 1;     
      band_center 2401;     
      band_width 40;     
      time_delay 30.0;     
      raise_taps 16;     
      lower_taps 16;     
      current_transducer_ratio 700;     
      power_transducer_ratio 20;     
      compensator_r_setting_A 3.0;     
      compensator_r_setting_B 3.0;     
      compensator_r_setting_C 3.0;     
      compensator_x_setting_A 9.0;     
      compensator_x_setting_B 9.0;     
      compensator_x_setting_C 9.0;     
      CT_phase ABC;     
      PT_phase ABC;     
      regulation 0.10;     
      Control OUTPUT_VOLTAGE;     
      Type A;     
      tap_pos_A 1;     
      tap_pos_B 1;     
      tap_pos_C 1;     
}       

object transformer_configuration {
    name  trans_config_to_feeder_;
     connect_type WYE_WYE;
     install_type PADMOUNT;
     primary_voltage 33000;
     secondary_voltage 2401.777;
     power_rating 5 MVA;
     impedance 0.00033+0.0022j;
}

object node {
     name network_node_;
     bustype SWING;
     nominal_voltage 33000;
     phases ABCN;
}

object transformer {
     name substation_transformer_;
     object recorder {
          file nik-acti_biddingDR_transformer_power.csv;
          interval 60;
          limit 1440;
          property power_in_A.real,power_in_A.imag,power_in_B.real,power_in_B.imag,power_in_C.real,power_in_C.imag,power_out_A.real,power_out_A.imag,power_out_B.real,power_out_B.imag,power_out_C.real,power_out_C.imag,power_losses_A.real,power_losses_A.imag;
     };
     groupid Distribution_Trans;
     from network_node_;
     to 650;
     phases ABCN;
     configuration trans_config_to_feeder_;
};       
object overhead_line {     
      groupid Distribution_Line;
      phases BCN;     
      name 632-645;     
      from 632;     
      to 645;     
      length 500;     
      configuration line_configuration_603;
      
     
}       
object overhead_line {     
      groupid Distribution_Line;
      phases BCN;     
      name 645-646;     
      from 645;     
      to 646;     
      length 300;     
      configuration line_configuration_603;     
} 

object overhead_line {     
      groupid Distribution_Line;
      phases ABCN;     
      name 630-632;     
      from 630;     
      to 632;     
      length 2000;     
      configuration line_configuration_601;  
      
     
      
}       
object overhead_line {     
      groupid Distribution_Line;
      phases ABCN;     
      name 632-6321;     
      from 632;     
      to 6321;     
      length 500;     
      configuration line_configuration_601;     
}       
object overhead_line {     
      groupid Distribution_Line;
      phases ABCN;     
      name 6321-671;     
      from 6321;     
      to 671;     
      length 1500;     
      configuration line_configuration_601;     
}       
object overhead_line {     
      groupid Distribution_Line;
      phases ABCN;     
      name 671-680;     
      from 671;     
      to 680;     
      length 1000;     
      configuration line_configuration_601;     
}       
object overhead_line {     
      groupid Distribution_Line;
      phases ACN;     
      name 671-684;     
      from 671;     
      to 684;     
      length 300;     
      configuration line_configuration_604;   
      
     
}       
object overhead_line {     
      groupid Distribution_Line;
      phases CN;     
      name 684-611;     
      from 684;     
      to 611;     
      length 300;     
      configuration line_configuration_605;     
}       
object underground_line {     
      groupid Distribution_Line;
      phases AN;     
      name 684-652;     
      from 684;     
      to 652;     
      length 800;     
      configuration line_configuration_607;     
}       
object underground_line {     
      groupid Distribution_Line;
      phases ABC;     
      name 692-675;     
      from 692;     
      to 675;     
      length 2500;     
      configuration line_configuration_606;     
}       
object overhead_line {     
      groupid Distribution_Line;
      phases ABCN;     
      name 632-633;     
      from 632;     
      to 633;     
      length 500;     
      configuration line_configuration_602;     
}       
object node {     
      name 633;     
      phases ABCN;     
      voltage_A 2401.7771;     
      voltage_B -1200.8886-2080.000j;     
      voltage_C -1200.8886+2080.000j;     
      nominal_voltage 2401.7771;     
}       
object node {     
      name 630;     
      phases ABCN;     
      voltage_A 2401.7771+0j;     
      voltage_B -1200.8886-2080.000j;     
      voltage_C -1200.8886+2080.000j;     
      nominal_voltage 2401.7771;     
}       
object node {     
      name 632;     
      phases ABCN;     
      voltage_A 2401.7771;     
      voltage_B -1200.8886-2080.000j;     
      voltage_C -1200.8886+2080.000j;     
      nominal_voltage 2401.7771; 
      
     
      
}       
object node {     
      name 650;   
      //bustype PV;
      phases ABCN;     
      voltage_A 2401.7771;     
      voltage_B -1200.8886-2080.000j;     
      voltage_C -1200.8886+2080.000j;     
      nominal_voltage 2401.7771;   
      
    
}       
object node {     
      name 680;     
      phases ABCN;     
      voltage_A 2401.7771;     
      voltage_B -1200.8886-2080.000j;     
      voltage_C -1200.8886+2080.000j;     
      nominal_voltage 2401.7771;     
}       
object node {     
      name 684;     
      phases ACN;     
      voltage_A 2401.7771;     
      voltage_B -1200.8886-2080.000j;     
      voltage_C -1200.8886+2080.000j;     
      nominal_voltage 2401.7771;     
}       
object node {     
      name 634;     
      phases ABCN;     
      voltage_A 480.000+0j;     
      voltage_B -240.000-415.6922j;     
      voltage_C -240.000+415.6922j;     
      nominal_voltage 480.000;     
}       

object node {
      name 645;     
      phases BCN;     
      nominal_voltage 2401.7771;  
      
      //object recorder{
             // file "node645congestion.csv";
             // property conc,node_answer;
             // interval 900;
             // limit 20000000;
       	//};
}


object node {
      name 646;     
      phases BC;     
      nominal_voltage 2401.7771;     
}


object node {
      name 652;     
      phases AN;     
      nominal_voltage 2401.7771;     
}


object node {
      name 671;     
      phases ABC;     
      nominal_voltage 2401.7771;     
}


object node {
      name 675;     
      phases ABC;     
      nominal_voltage 2401.7771;     
}


object node {
      name 692;     
      phases ABC;     
      nominal_voltage 2401.7771;     
}


object node {
      name 611;     
      phases CN;     
      nominal_voltage 2401.7771;     
}


object node {
      name 6711;     
      parent 671;     
      phases ABC;     
      nominal_voltage 2401.7771;     
}


object node {
      name 6321;     
      phases ABCN;     
      nominal_voltage 2401.7771;  
      
     // object recorder{
     //               file "node6321congestion.csv";
     //               property conc,node_answer;
     //               interval 900;
     //               limit 20000000;
     //  	};
}

object switch {     
      phases ABCN;     
      name 671-692;     
      from 671;     
      to 692;     
      status CLOSED;     
}       
object transformer {     
      groupid Distribution_Trans;
      phases ABCN;     
      name 633-634;     
      from 633;     
      to 634;     
      configuration transformer_configuration_400;     
}       
object regulator {     
      name Reg1;     
      phases ABC;     
      from 650;     
      to 630;     
      configuration regulator_configuration_6506321;     
}       

object capacitor {     
      phases ABCN;     
      name CAP1;     
      pt_phase ABCN;     
      parent 675;     
      phases_connected ABCN;     
      control VOLT;     
      voltage_set_high 2700.0;     
      voltage_set_low 2250.0;     
      capacitor_A 0.10 MVAr;    
      capacitor_B 0.10 MVAr;    
      capacitor_C 0.10 MVAr;    
      control_level INDIVIDUAL;     
      time_delay 300.0;     
      dwell_time 0.0;     
      switchA CLOSED;     
      switchB CLOSED;     
      switchC CLOSED;     
      nominal_voltage 2401.7771;     
}       
object capacitor {     
      phases ABCN;     
      name CAP2;     
      pt_phase ABCN;     
      parent 675;     
      phases_connected ABCN;     
      control VOLT;     
      voltage_set_high 2600.0;     
      voltage_set_low 2150.0;     
      capacitor_A 0.05 MVAr;    
      capacitor_B 0.05 MVAr;    
      capacitor_C 0.05 MVAr;    
      control_level INDIVIDUAL;     
      time_delay 300.0;     
      dwell_time 0.0;     
      switchA CLOSED;     
      switchB CLOSED;     
      switchC CLOSED;     
      nominal_voltage 2401.7771; 
 }

object triplex_line_configuration {
      name trip_line_config;
      conductor_1 object triplex_line_conductor {
            resistance 0.97;
            geometric_mean_radius 0.01111;
            };
      conductor_2 object triplex_line_conductor {
            resistance 0.97;
            geometric_mean_radius 0.01111;
            };
      conductor_N object triplex_line_conductor {
            resistance 0.97;
            geometric_mean_radius 0.01111;
            };
      insulation_thickness 0.08;
      diameter 0.368;
}
// 25027.549254
// 31317.516709
object transformer {
       name CTTF_B_645;
       phases BS;
       from 645;
       to tn_B_645;
       configuration object transformer_configuration {
            connect_type SINGLE_PHASE_CENTER_TAPPED;
            install_type POLETOP;
            shunt_impedance 10000+10000j;
            primary_voltage 2401.777;
            secondary_voltage 120;
            powerB_rating 235 kVA;
            impedance 0.00033+0.0022j;
       };
       groupid Distribution_Trans;
}

object triplex_meter {
       name tn_B_645;
       phases BS;
       nominal_voltage 120;
}

object triplex_line {
       name tl_B_1_645;
       phases BS;
       from tn_B_645;
       to tm_B_1_645;
       length 15.59;
       configuration trip_line_config;
       groupid Triplex_Line;
}

object triplex_meter {
       name tm_B_1_645;
       phases BS;
       nominal_voltage 120;
       groupid House_Meter;
}

object house  {
     parent tm_B_1_645;
     name house_1B_tm_B_1_645;
     floor_area 1809;
     schedule_skew -910;
     heating_system_type HEAT_PUMP;
     heating_COP 2.5;
     cooling_system_type ELECTRIC;
     //override=1;
     //re_override=1;

     object controller {
           schedule_skew -910;
           market Market_1;
           bid_mode ON;
           use_predictive_bidding TRUE;
           use_override ON;
       	   override power_state;
           control_mode DOUBLE_RAMP;
           resolve_mode DEADBAND;
           slider_setting_heat 0.500;
           slider_setting_cool 0.500;
           heating_base_setpoint heating2*1;
           cooling_base_setpoint cooling2*1;
           period 900;
           average_target current_price_mean_30min;           
           standard_deviation_target current_price_stdev_30min;           
           target air_temperature;
           heating_setpoint heating_setpoint;
           heating_demand last_heating_load;
           cooling_setpoint cooling_setpoint;
           cooling_demand last_cooling_load;
           deadband thermostat_deadband;
           total hvac_load;
           load hvac_load;
           state power_state;
           
           object multi_recorder{
	           file "hvac_controller_of_a_house645.csv";
	           property bid_price,bid_quantity,Market_1:current_market.clearing_type,market_price,house_1B_tm_B_1_645:air_temperature,house_1B_tm_B_1_645:cooling_setpoint,house_1B_tm_B_1_645:heating_setpoint,house_1B_tm_B_1_645:system_mode,house_1B_tm_B_1_645:hvac_load,house_1B_tm_B_1_645:outdoor_temperature;
	           interval 60;
	           limit 2000000000000000000000;
       	   };
       };

     thermal_integrity_level 4;
     air_temperature 70;
     mass_temperature 70;
     cooling_COP 2.6;
     object ZIPload {
           base_power LIGHTS*1.01;
           schedule_skew -910;
           heatgain_fraction 0.9;
           power_pf 1.000;
           current_pf 1.000;
           impedance_pf 1.000;
           impedance_fraction 0.300000;
           current_fraction 0.300000;
           power_fraction 0.400000;
     };
     object waterheater {
          schedule_skew -910;
          tank_volume 50;
          heating_element_capacity 4.4 kW;
          tank_setpoint 130.8;
          temperature 135;
          thermostat_deadband 4.8;
          location INSIDE;
          tank_UA 2.1;
          demand water9*1;
  	  object controller {
   		schedule_skew -910;
   		market Market_1;
      		bid_mode ON;
      		use_override ON;
       	   	override power_state;
      		control_mode RAMP;
      		resolve_mode DEADBAND;
      		period 900;
        	average_target current_price_mean_30min;           
        	standard_deviation_target current_price_stdev_30min;  
        	target inlet_water_temperature;
  		setpoint tank_setpoint;
  		demand actual_load;
     	  	deadband thermostat_deadband;
  		total actual_load;
 		load actual_load;
  	 };
   };
}

object triplex_line {
       name tl_B_2_645;
       phases BS;
       from tn_B_645;
       to tm_B_2_645;
       length 13.02;
       configuration trip_line_config;
       groupid Triplex_Line;
}

object triplex_meter {
       name tm_B_2_645;
       phases BS;
       nominal_voltage 120;
       groupid House_Meter;
}

object house  {
     parent tm_B_2_645;
     name house 2B_tm_B_2_645;
     floor_area 2391;
     schedule_skew 1335;
     heating_system_type GAS;
     cooling_system_type ELECTRIC;
       heating_setpoint heating3*1;

     object controller {
           schedule_skew 1335;
           market Market_1;
        //use_predictive_bidding 1;
        use_override ON;
       override power_state;
           bid_mode ON;
           control_mode RAMP;
           slider_setting 0.500;
           base_setpoint cooling4*1;
           period 900;
           average_target current_price_mean_30min;           standard_deviation_target current_price_stdev_30min;           target air_temperature;
           setpoint cooling_setpoint;
           demand last_cooling_load;
           deadband thermostat_deadband;
           total hvac_load;
           load hvac_load;
           state power_state;
           range_high 5;
           range_low -3;
       };

     thermal_integrity_level 3;
     air_temperature 70;
     mass_temperature 70;
     cooling_COP 3.9;
     object ZIPload {
           base_power LIGHTS*1.18;
           schedule_skew 1335;
           heatgain_fraction 0.9;
           power_pf 1.000;
           current_pf 1.000;
           impedance_pf 1.000;
           impedance_fraction 0.300000;
           current_fraction 0.300000;
           power_fraction 0.400000;
     };
     object waterheater {
          schedule_skew 1335;
          tank_volume 50;
          heating_element_capacity 4.5 kW;
          tank_setpoint 134.5;
          temperature 135;
          thermostat_deadband 4.7;
          location INSIDE;
          tank_UA 2.9;
          demand water9*1;
  object controller {
    schedule_skew 1335;
   market Market_1;
      bid_mode ON;
      control_mode RAMP;
      resolve_mode DEADBAND;
      period 900;
           average_target current_price_mean_30min;           standard_deviation_target current_price_stdev_30min;  target inlet_water_temperature;
  setpoint tank_setpoint;
  demand actual_load;
           deadband thermostat_deadband;
  total actual_load;
 load actual_load;
  };
  };
}

object triplex_line {
       name tl_B_3_645;
       phases BS;
       from tn_B_645;
       to tm_B_3_645;
       length 17.05;
       configuration trip_line_config;
       groupid Triplex_Line;
}

object triplex_meter {
       name tm_B_3_645;
       phases BS;
       nominal_voltage 120;
       groupid House_Meter;
}

object house  {
     parent tm_B_3_645;
     name house 3B_tm_B_3_645;
     floor_area 2573;
     schedule_skew -992;
     heating_system_type HEAT_PUMP;
     heating_COP 3.2;
     cooling_system_type ELECTRIC;

     object controller {
           schedule_skew -992;
           market Market_1;
           bid_mode ON;
        //use_predictive_bidding 1;
        use_override ON;
       override power_state;
           control_mode DOUBLE_RAMP;
           resolve_mode DEADBAND;
           slider_setting_heat 0.500;
           slider_setting_cool 0.500;
           heating_base_setpoint heating7*1;
           cooling_base_setpoint cooling2*1;
           period 900;
           average_target current_price_mean_30min;           standard_deviation_target current_price_stdev_30min;           target air_temperature;
           heating_setpoint heating_setpoint;
           heating_demand last_heating_load;
           cooling_setpoint cooling_setpoint;
           cooling_demand last_cooling_load;
           deadband thermostat_deadband;
           total hvac_load;
           load hvac_load;
           state power_state;
       };

     thermal_integrity_level 5;
     air_temperature 70;
     mass_temperature 70;
     cooling_COP 2.9;
     object ZIPload {
           base_power LIGHTS*1.20;
           schedule_skew -992;
           heatgain_fraction 0.9;
           power_pf 1.000;
           current_pf 1.000;
           impedance_pf 1.000;
           impedance_fraction 0.300000;
           current_fraction 0.300000;
           power_fraction 0.400000;
     };
     object waterheater {
          schedule_skew -992;
          tank_volume 50;
          heating_element_capacity 4.4 kW;
          tank_setpoint 125.3;
          temperature 135;
          thermostat_deadband 3.3;
          location INSIDE;
          tank_UA 2.6;
          demand water12*1;
  object controller {
    schedule_skew -992;
   market Market_1;
      bid_mode ON;
      control_mode RAMP;
      resolve_mode DEADBAND;
      period 900;
           average_target current_price_mean_30min;           standard_deviation_target current_price_stdev_30min;  target inlet_water_temperature;
  setpoint tank_setpoint;
  demand actual_load;
           deadband thermostat_deadband;
  total actual_load;
 load actual_load;
  };
  };
}

object triplex_line {
       name tl_B_4_645;
       phases BS;
       from tn_B_645;
       to tm_B_4_645;
       length 17.61;
       configuration trip_line_config;
       groupid Triplex_Line;
}

object triplex_meter {
       name tm_B_4_645;
       phases BS;
       nominal_voltage 120;
       groupid House_Meter;
}

object house  {
     parent tm_B_4_645;
     name house 4B_tm_B_4_645;
     floor_area 2139;
     schedule_skew 2912;
     heating_system_type HEAT_PUMP;
     heating_COP 3.3;
     cooling_system_type ELECTRIC;

     object controller {
           schedule_skew 2912;
           market Market_1;
           bid_mode ON;
        //use_predictive_bidding 1;
        use_override ON;
       override power_state;
           control_mode DOUBLE_RAMP;
           resolve_mode DEADBAND;
           slider_setting_heat 0.500;
           slider_setting_cool 0.500;
           heating_base_setpoint heating4*1;
           cooling_base_setpoint cooling8*1;
           period 900;
           average_target current_price_mean_30min;           standard_deviation_target current_price_stdev_30min;           target air_temperature;
           heating_setpoint heating_setpoint;
           heating_demand last_heating_load;
           cooling_setpoint cooling_setpoint;
           cooling_demand last_cooling_load;
           deadband thermostat_deadband;
           total hvac_load;
           load hvac_load;
           state power_state;
       };

     thermal_integrity_level 6;
     air_temperature 70;
     mass_temperature 70;
     cooling_COP 3.0;
     object ZIPload {
           base_power LIGHTS*1.27;
           schedule_skew 2912;
           heatgain_fraction 0.9;
           power_pf 1.000;
           current_pf 1.000;
           impedance_pf 1.000;
           impedance_fraction 0.300000;
           current_fraction 0.300000;
           power_fraction 0.400000;
     };
     object waterheater {
          schedule_skew 2912;
          tank_volume 50;
          heating_element_capacity 4.6 kW;
          tank_setpoint 131.2;
          temperature 135;
          thermostat_deadband 5.0;
          location INSIDE;
          tank_UA 3.0;
          demand water20*1;
  object controller {
    schedule_skew 2912;
   market Market_1;
      bid_mode ON;
      control_mode RAMP;
      resolve_mode DEADBAND;
      period 900;
           average_target current_price_mean_30min;           standard_deviation_target current_price_stdev_30min;  target inlet_water_temperature;
  setpoint tank_setpoint;
  demand actual_load;
           deadband thermostat_deadband;
  total actual_load;
 load actual_load;
  };
  };
}

object triplex_line {
       name tl_B_5_645;
       phases BS;
       from tn_B_645;
       to tm_B_5_645;
       length 19.19;
       configuration trip_line_config;
       groupid Triplex_Line;
}

object triplex_meter {
       name tm_B_5_645;
       phases BS;
       nominal_voltage 120;
       groupid House_Meter;
}

object house  {
     parent tm_B_5_645;
     name house 5B_tm_B_5_645;
     floor_area 2374;
     schedule_skew -1202;
     heating_system_type HEAT_PUMP;
     heating_COP 3.0;
     cooling_system_type ELECTRIC;

     object controller {
           schedule_skew -1202;
           market Market_1;
           bid_mode ON;
        //use_predictive_bidding 1;
        use_override ON;
       override power_state;
           control_mode DOUBLE_RAMP;
           resolve_mode DEADBAND;
           slider_setting_heat 0.500;
           slider_setting_cool 0.500;
           heating_base_setpoint heating8*1;
           cooling_base_setpoint cooling5*1;
           period 900;
           average_target current_price_mean_30min;           standard_deviation_target current_price_stdev_30min;           target air_temperature;
           heating_setpoint heating_setpoint;
           heating_demand last_heating_load;
           cooling_setpoint cooling_setpoint;
           cooling_demand last_cooling_load;
           deadband thermostat_deadband;
           total hvac_load;
           load hvac_load;
           state power_state;
       };

     thermal_integrity_level 4;
     air_temperature 70;
     mass_temperature 70;
     cooling_COP 3.8;
     object ZIPload {
           base_power LIGHTS*1.08;
           schedule_skew -1202;
           heatgain_fraction 0.9;
           power_pf 1.000;
           current_pf 1.000;
           impedance_pf 1.000;
           impedance_fraction 0.300000;
           current_fraction 0.300000;
           power_fraction 0.400000;
     };
     object waterheater {
          schedule_skew -1202;
          tank_volume 50;
          heating_element_capacity 4.4 kW;
          tank_setpoint 133.4;
          temperature 135;
          thermostat_deadband 2.3;
          location INSIDE;
          tank_UA 3.4;
          demand water20*1;
  object controller {
    schedule_skew -1202;
   market Market_1;
      bid_mode ON;
      control_mode RAMP;
      resolve_mode DEADBAND;
      period 900;
           average_target current_price_mean_30min;           standard_deviation_target current_price_stdev_30min;  target inlet_water_temperature;
  setpoint tank_setpoint;
  demand actual_load;
           deadband thermostat_deadband;
  total actual_load;
 load actual_load;
  };
  };
}

object triplex_line {
       name tl_B_6_645;
       phases BS;
       from tn_B_645;
       to tm_B_6_645;
       length 11.77;
       configuration trip_line_config;
       groupid Triplex_Line;
}

object triplex_meter {
       name tm_B_6_645;
       phases BS;
       nominal_voltage 120;
       groupid House_Meter;
}

object house  {
     parent tm_B_6_645;
     name house 6B_tm_B_6_645;
     floor_area 2592;
     schedule_skew 660;
     heating_system_type HEAT_PUMP;
     heating_COP 2.4;
     cooling_system_type ELECTRIC;

     object controller {
           schedule_skew 660;
           market Market_1;
           bid_mode ON;
        //use_predictive_bidding 1;
        use_override ON;
       override power_state;
           control_mode DOUBLE_RAMP;
           resolve_mode DEADBAND;
           slider_setting_heat 0.500;
           slider_setting_cool 0.500;
           heating_base_setpoint heating5*1;
           cooling_base_setpoint cooling7*1;
           period 900;
           average_target current_price_mean_30min;           standard_deviation_target current_price_stdev_30min;           target air_temperature;
           heating_setpoint heating_setpoint;
           heating_demand last_heating_load;
           cooling_setpoint cooling_setpoint;
           cooling_demand last_cooling_load;
           deadband thermostat_deadband;
           total hvac_load;
           load hvac_load;
           state power_state;
       };

     thermal_integrity_level 5;
     air_temperature 70;
     mass_temperature 70;
     cooling_COP 2.6;
     object ZIPload {
           base_power LIGHTS*1.22;
           schedule_skew 660;
           heatgain_fraction 0.9;
           power_pf 1.000;
           current_pf 1.000;
           impedance_pf 1.000;
           impedance_fraction 0.300000;
           current_fraction 0.300000;
           power_fraction 0.400000;
     };
     object waterheater {
          schedule_skew 660;
          tank_volume 50;
          heating_element_capacity 4.8 kW;
          tank_setpoint 131.9;
          temperature 135;
          thermostat_deadband 5.1;
          location INSIDE;
          tank_UA 3.2;
          demand water5*1;
  object controller {
    schedule_skew 660;
   market Market_1;
      bid_mode ON;
      control_mode RAMP;
      resolve_mode DEADBAND;
      period 900;
           average_target current_price_mean_30min;           standard_deviation_target current_price_stdev_30min;  target inlet_water_temperature;
  setpoint tank_setpoint;
  demand actual_load;
           deadband thermostat_deadband;
  total actual_load;
 load actual_load;
  };
  };
}

object triplex_line {
       name tl_B_7_645;
       phases BS;
       from tn_B_645;
       to tm_B_7_645;
       length 13.73;
       configuration trip_line_config;
       groupid Triplex_Line;
}

object triplex_meter {
       name tm_B_7_645;
       phases BS;
       nominal_voltage 120;
       groupid House_Meter;
}

object house  {
     parent tm_B_7_645;
     name house 7B_tm_B_7_645;
     floor_area 2503;
     schedule_skew 1010;
     heating_system_type HEAT_PUMP;
     heating_COP 2.2;
     cooling_system_type ELECTRIC;

     object controller {
           schedule_skew 1010;
           market Market_1;
           bid_mode ON;
        //use_predictive_bidding 1;
        use_override ON;
       override power_state;
           control_mode DOUBLE_RAMP;
           resolve_mode DEADBAND;
           slider_setting_heat 0.500;
           slider_setting_cool 0.500;
           heating_base_setpoint heating7*1;
           cooling_base_setpoint cooling1*1;
           period 900;
           average_target current_price_mean_30min;           standard_deviation_target current_price_stdev_30min;           target air_temperature;
           heating_setpoint heating_setpoint;
           heating_demand last_heating_load;
           cooling_setpoint cooling_setpoint;
           cooling_demand last_cooling_load;
           deadband thermostat_deadband;
           total hvac_load;
           load hvac_load;
           state power_state;
       };

     thermal_integrity_level 4;
     air_temperature 70;
     mass_temperature 70;
     cooling_COP 3.8;
     object ZIPload {
           base_power LIGHTS*1.55;
           schedule_skew 1010;
           heatgain_fraction 0.9;
           power_pf 1.000;
           current_pf 1.000;
           impedance_pf 1.000;
           impedance_fraction 0.300000;
           current_fraction 0.300000;
           power_fraction 0.400000;
     };
     object waterheater {
          schedule_skew 1010;
          tank_volume 50;
          heating_element_capacity 4.6 kW;
          tank_setpoint 134.7;
          temperature 135;
          thermostat_deadband 2.8;
          location INSIDE;
          tank_UA 2.2;
          demand water6*1;
  object controller {
    schedule_skew 1010;
   market Market_1;
      bid_mode ON;
      control_mode RAMP;
      resolve_mode DEADBAND;
      period 900;
           average_target current_price_mean_30min;           standard_deviation_target current_price_stdev_30min;  target inlet_water_temperature;
  setpoint tank_setpoint;
  demand actual_load;
           deadband thermostat_deadband;
  total actual_load;
 load actual_load;
  };
  };
}

object triplex_line {
       name tl_B_8_645;
       phases BS;
       from tn_B_645;
       to tm_B_8_645;
       length 17.89;
       configuration trip_line_config;
       groupid Triplex_Line;
}

object triplex_meter {
       name tm_B_8_645;
       phases BS;
       nominal_voltage 120;
       groupid House_Meter;
}

object house  {
     parent tm_B_8_645;
     name house 8B_tm_B_8_645;
     floor_area 2371;
     schedule_skew -2023;
     heating_system_type GAS;
     cooling_system_type ELECTRIC;
       heating_setpoint heating5*1;

     object controller {
           schedule_skew -2023;
           market Market_1;
        //use_predictive_bidding 1;
        use_override ON;
       override power_state;
           bid_mode ON;
           control_mode RAMP;
           slider_setting 0.500;
           base_setpoint cooling6*1;
           period 900;
           average_target current_price_mean_30min;           standard_deviation_target current_price_stdev_30min;           target air_temperature;
           setpoint cooling_setpoint;
           demand last_cooling_load;
           deadband thermostat_deadband;
           total hvac_load;
           load hvac_load;
           state power_state;
           range_high 5;
           range_low -3;
       };

     thermal_integrity_level 5;
     air_temperature 70;
     mass_temperature 70;
     cooling_COP 3.7;
     object ZIPload {
           base_power LIGHTS*1.35;
           schedule_skew -2023;
           heatgain_fraction 0.9;
           power_pf 1.000;
           current_pf 1.000;
           impedance_pf 1.000;
           impedance_fraction 0.300000;
           current_fraction 0.300000;
           power_fraction 0.400000;
     };
     object waterheater {
          schedule_skew -2023;
          tank_volume 50;
          heating_element_capacity 4.6 kW;
          tank_setpoint 130.4;
          temperature 135;
          thermostat_deadband 5.0;
          location INSIDE;
          tank_UA 2.6;
          demand water19*1;
  object controller {
    schedule_skew -2023;
   market Market_1;
      bid_mode ON;
      control_mode RAMP;
      resolve_mode DEADBAND;
      period 900;
           average_target current_price_mean_30min;           standard_deviation_target current_price_stdev_30min;  target inlet_water_temperature;
  setpoint tank_setpoint;
  demand actual_load;
           deadband thermostat_deadband;
  total actual_load;
 load actual_load;
  };
  };
}

object triplex_line {
       name tl_B_9_645;
       phases BS;
       from tn_B_645;
       to tm_B_9_645;
       length 11.87;
       configuration trip_line_config;
       groupid Triplex_Line;
}

object triplex_meter {
       name tm_B_9_645;
       phases BS;
       nominal_voltage 120;
       groupid House_Meter;
}

object house  {
     parent tm_B_9_645;
     name house 9B_tm_B_9_645;
     floor_area 2192;
     schedule_skew -1341;
     heating_system_type HEAT_PUMP;
     heating_COP 3.4;
     cooling_system_type ELECTRIC;

     object controller {
           schedule_skew -1341;
           market Market_1;
           bid_mode ON;
        //use_predictive_bidding 1;
        use_override ON;
       override power_state;
           control_mode DOUBLE_RAMP;
           resolve_mode DEADBAND;
           slider_setting_heat 0.500;
           slider_setting_cool 0.500;
           heating_base_setpoint heating1*1;
           cooling_base_setpoint cooling8*1;
           period 900;
           average_target current_price_mean_30min;           standard_deviation_target current_price_stdev_30min;           target air_temperature;
           heating_setpoint heating_setpoint;
           heating_demand last_heating_load;
           cooling_setpoint cooling_setpoint;
           cooling_demand last_cooling_load;
           deadband thermostat_deadband;
           total hvac_load;
           load hvac_load;
           state power_state;
       };

     thermal_integrity_level 5;
     air_temperature 70;
     mass_temperature 70;
     cooling_COP 2.8;
     object ZIPload {
           base_power LIGHTS*1.05;
           schedule_skew -1341;
           heatgain_fraction 0.9;
           power_pf 1.000;
           current_pf 1.000;
           impedance_pf 1.000;
           impedance_fraction 0.300000;
           current_fraction 0.300000;
           power_fraction 0.400000;
     };
     object waterheater {
          schedule_skew -1341;
          tank_volume 50;
          heating_element_capacity 4.3 kW;
          tank_setpoint 131.8;
          temperature 135;
          thermostat_deadband 4.3;
          location INSIDE;
          tank_UA 3.1;
          demand water10*1;
  object controller {
    schedule_skew -1341;
   market Market_1;
      bid_mode ON;
      control_mode RAMP;
      resolve_mode DEADBAND;
      period 900;
           average_target current_price_mean_30min;           standard_deviation_target current_price_stdev_30min;  target inlet_water_temperature;
  setpoint tank_setpoint;
  demand actual_load;
           deadband thermostat_deadband;
  total actual_load;
 load actual_load;
  };
  };
}

object triplex_line {
       name tl_B_10_645;
       phases BS;
       from tn_B_645;
       to tm_B_10_645;
       length 16.60;
       configuration trip_line_config;
       groupid Triplex_Line;
}

object triplex_meter {
       name tm_B_10_645;
       phases BS;
       nominal_voltage 120;
       groupid House_Meter;
}

object house  {
     parent tm_B_10_645;
     name house 10B_tm_B_10_645;
     floor_area 2555;
     schedule_skew 1380;
     heating_system_type GAS;
     cooling_system_type ELECTRIC;
       heating_setpoint heating3*1;

     object controller {
           schedule_skew 1380;
           market Market_1;
        //use_predictive_bidding 1;
        use_override ON;
       override power_state;
           bid_mode ON;
           control_mode RAMP;
           slider_setting 0.500;
           base_setpoint cooling3*1;
           period 900;
           average_target current_price_mean_30min;           standard_deviation_target current_price_stdev_30min;           target air_temperature;
           setpoint cooling_setpoint;
           demand last_cooling_load;
           deadband thermostat_deadband;
           total hvac_load;
           load hvac_load;
           state power_state;
           range_high 5;
           range_low -3;
       };

     thermal_integrity_level 6;
     air_temperature 70;
     mass_temperature 70;
     cooling_COP 3.6;
     object ZIPload {
           base_power LIGHTS*1.36;
           schedule_skew 1380;
           heatgain_fraction 0.9;
           power_pf 1.000;
           current_pf 1.000;
           impedance_pf 1.000;
           impedance_fraction 0.300000;
           current_fraction 0.300000;
           power_fraction 0.400000;
     };
     object waterheater {
          schedule_skew 1380;
          tank_volume 50;
          heating_element_capacity 4.5 kW;
          tank_setpoint 134.1;
          temperature 135;
          thermostat_deadband 2.5;
          location INSIDE;
          tank_UA 2.6;
          demand water8*1;
  object controller {
    schedule_skew 1380;
   market Market_1;
      bid_mode ON;
      control_mode RAMP;
      resolve_mode DEADBAND;
      period 900;
           average_target current_price_mean_30min;           standard_deviation_target current_price_stdev_30min;  target inlet_water_temperature;
  setpoint tank_setpoint;
  demand actual_load;
           deadband thermostat_deadband;
  total actual_load;
 load actual_load;
  };
  };
}


object transformer {
       name CTTF_B_646;
       phases BS;
       from 646;
       to tn_B_646;
       configuration object transformer_configuration {
            connect_type SINGLE_PHASE_CENTER_TAPPED;
            install_type POLETOP;
            shunt_impedance 10000+10000j;
            primary_voltage 2401.777;
            secondary_voltage 120;
            powerB_rating 215 kVA;
            impedance 0.00033+0.0022j;
       };
       groupid Distribution_Trans;
}

object triplex_meter {
       name tn_B_646;
       phases BS;
       nominal_voltage 120;
}

object transformer {
       name CTTF_A_652;
       phases AS;
       from 652;
       to tn_A_652;
       configuration object transformer_configuration {
            connect_type SINGLE_PHASE_CENTER_TAPPED;
            install_type POLETOP;
            shunt_impedance 10000+10000j;
            primary_voltage 2401.777;
            secondary_voltage 120;
            powerA_rating 455 kVA;
            impedance 0.00033+0.0022j;
       };
       groupid Distribution_Trans;
}

object triplex_meter {
       name tn_A_652;
       phases AS;
       nominal_voltage 120;
}
object transformer {
       name CTTF_A_671;
       phases AS;
       from 671;
       to tn_A_671;
       configuration object transformer_configuration {
            connect_type SINGLE_PHASE_CENTER_TAPPED;
            install_type POLETOP;
            shunt_impedance 10000+10000j;
            primary_voltage 2401.777;
            secondary_voltage 120;
            powerA_rating 685 kVA;
            impedance 0.00033+0.0022j;
       };
       groupid Distribution_Trans;
}

object triplex_meter {
       name tn_A_671;
       phases AS;
       nominal_voltage 120;
}

object triplex_line {
       name tl_A_1_671;
       phases AS;
       from tn_A_671;
       to tm_A_1_671;
       length 17.95;
       configuration trip_line_config;
       groupid Triplex_Line;
}

object triplex_meter {
       name tm_A_1_671;
       phases AS;
       nominal_voltage 120;
       groupid House_Meter;
}

object house  {
     parent tm_A_1_671;
     name house 1A_tm_A_1_671;
     floor_area 1853;
     schedule_skew 804;
     heating_system_type HEAT_PUMP;
     heating_COP 2.7;
     cooling_system_type ELECTRIC;

     object controller {
           schedule_skew 804;
           market Market_1;
           bid_mode ON;
        //use_predictive_bidding 1;
        use_override ON;
       override power_state;
           control_mode DOUBLE_RAMP;
           resolve_mode DEADBAND;
           slider_setting_heat 0.500;
           slider_setting_cool 0.500;
           heating_base_setpoint heating2*1;
           cooling_base_setpoint cooling3*1;
           period 900;
           average_target current_price_mean_30min;           standard_deviation_target current_price_stdev_30min;           target air_temperature;
           heating_setpoint heating_setpoint;
           heating_demand last_heating_load;
           cooling_setpoint cooling_setpoint;
           cooling_demand last_cooling_load;
           deadband thermostat_deadband;
           total hvac_load;
           load hvac_load;
           state power_state;
       };

     thermal_integrity_level 4;
     air_temperature 70;
     mass_temperature 70;
     cooling_COP 3.4;
     object ZIPload {
           base_power LIGHTS*1.04;
           schedule_skew 804;
           heatgain_fraction 0.9;
           power_pf 1.000;
           current_pf 1.000;
           impedance_pf 1.000;
           impedance_fraction 0.300000;
           current_fraction 0.300000;
           power_fraction 0.400000;
     };
     object waterheater {
          schedule_skew 804;
          tank_volume 50;
          heating_element_capacity 4.7 kW;
          tank_setpoint 136.9;
          temperature 135;
          thermostat_deadband 2.9;
          location INSIDE;
          tank_UA 2.1;
          demand water19*1;
  object controller {
    schedule_skew 804;
   market Market_1;
      bid_mode ON;
      control_mode RAMP;
      resolve_mode DEADBAND;
      period 900;
           average_target current_price_mean_30min;           standard_deviation_target current_price_stdev_30min;  target inlet_water_temperature;
  setpoint tank_setpoint;
  demand actual_load;
           deadband thermostat_deadband;
  total actual_load;
 load actual_load;
  };
  };
}

object triplex_line {
       name tl_A_2_671;
       phases AS;
       from tn_A_671;
       to tm_A_2_671;
       length 19.71;
       configuration trip_line_config;
       groupid Triplex_Line;
}

object triplex_meter {
       name tm_A_2_671;
       phases AS;
       nominal_voltage 120;
       groupid House_Meter;
}

object house  {
     parent tm_A_2_671;
     name house 2A_tm_A_2_671;
     floor_area 2424;
     schedule_skew 2181;
     heating_system_type HEAT_PUMP;
     heating_COP 3.0;
     cooling_system_type ELECTRIC;

     object controller {
           schedule_skew 2181;
           market Market_1;
           bid_mode ON;
        //use_predictive_bidding 1;
        use_override ON;
       override power_state;
           control_mode DOUBLE_RAMP;
           resolve_mode DEADBAND;
           slider_setting_heat 0.500;
           slider_setting_cool 0.500;
           heating_base_setpoint heating8*1;
           cooling_base_setpoint cooling1*1;
           period 900;
           average_target current_price_mean_30min;           standard_deviation_target current_price_stdev_30min;           target air_temperature;
           heating_setpoint heating_setpoint;
           heating_demand last_heating_load;
           cooling_setpoint cooling_setpoint;
           cooling_demand last_cooling_load;
           deadband thermostat_deadband;
           total hvac_load;
           load hvac_load;
           state power_state;
       };

     thermal_integrity_level 6;
     air_temperature 70;
     mass_temperature 70;
     cooling_COP 3.6;
     object ZIPload {
           base_power LIGHTS*1.56;
           schedule_skew 2181;
           heatgain_fraction 0.9;
           power_pf 1.000;
           current_pf 1.000;
           impedance_pf 1.000;
           impedance_fraction 0.300000;
           current_fraction 0.300000;
           power_fraction 0.400000;
     };
     object waterheater {
          schedule_skew 2181;
          tank_volume 50;
          heating_element_capacity 4.5 kW;
          tank_setpoint 132.9;
          temperature 135;
          thermostat_deadband 5.8;
          location INSIDE;
          tank_UA 3.3;
          demand water16*1;
  object controller {
    schedule_skew 2181;
   market Market_1;
      bid_mode ON;
      control_mode RAMP;
      resolve_mode DEADBAND;
      period 900;
           average_target current_price_mean_30min;           standard_deviation_target current_price_stdev_30min;  target inlet_water_temperature;
  setpoint tank_setpoint;
  demand actual_load;
           deadband thermostat_deadband;
  total actual_load;
 load actual_load;
  };
  };
}

object triplex_line {
       name tl_A_3_671;
       phases AS;
       from tn_A_671;
       to tm_A_3_671;
       length 19.69;
       configuration trip_line_config;
       groupid Triplex_Line;
}

object triplex_meter {
       name tm_A_3_671;
       phases AS;
       nominal_voltage 120;
       groupid House_Meter;
}

object house  {
     parent tm_A_3_671;
     name house 3A_tm_A_3_671;
     floor_area 2124;
     schedule_skew 2695;
     heating_system_type HEAT_PUMP;
     heating_COP 3.0;
     cooling_system_type ELECTRIC;

     object controller {
           schedule_skew 2695;
           market Market_1;
           bid_mode ON;
        //use_predictive_bidding 1;
        use_override ON;
       override power_state;
           control_mode DOUBLE_RAMP;
           resolve_mode DEADBAND;
           slider_setting_heat 0.500;
           slider_setting_cool 0.500;
           heating_base_setpoint heating8*1;
           cooling_base_setpoint cooling3*1;
           period 900;
           average_target current_price_mean_30min;           standard_deviation_target current_price_stdev_30min;           target air_temperature;
           heating_setpoint heating_setpoint;
           heating_demand last_heating_load;
           cooling_setpoint cooling_setpoint;
           cooling_demand last_cooling_load;
           deadband thermostat_deadband;
           total hvac_load;
           load hvac_load;
           state power_state;
       };

     thermal_integrity_level 3;
     air_temperature 70;
     mass_temperature 70;
     cooling_COP 3.0;
     object ZIPload {
           base_power LIGHTS*1.36;
           schedule_skew 2695;
           heatgain_fraction 0.9;
           power_pf 1.000;
           current_pf 1.000;
           impedance_pf 1.000;
           impedance_fraction 0.300000;
           current_fraction 0.300000;
           power_fraction 0.400000;
     };
     object waterheater {
          schedule_skew 2695;
          tank_volume 50;
          heating_element_capacity 4.7 kW;
          tank_setpoint 132.3;
          temperature 135;
          thermostat_deadband 4.5;
          location INSIDE;
          tank_UA 3.1;
          demand water16*1;
  object controller {
    schedule_skew 2695;
   market Market_1;
      bid_mode ON;
      control_mode RAMP;
      resolve_mode DEADBAND;
      period 900;
           average_target current_price_mean_30min;           standard_deviation_target current_price_stdev_30min;  target inlet_water_temperature;
  setpoint tank_setpoint;
  demand actual_load;
           deadband thermostat_deadband;
  total actual_load;
 load actual_load;
  };
  };
}

object triplex_line {
       name tl_A_4_671;
       phases AS;
       from tn_A_671;
       to tm_A_4_671;
       length 10.93;
       configuration trip_line_config;
       groupid Triplex_Line;
}

object triplex_meter {
       name tm_A_4_671;
       phases AS;
       nominal_voltage 120;
       groupid House_Meter;
}

object house  {
     parent tm_A_4_671;
     name house 4A_tm_A_4_671;
     floor_area 2275;
     schedule_skew 1229;
     heating_system_type GAS;
     cooling_system_type ELECTRIC;
       heating_setpoint heating5*1;

     object controller {
           schedule_skew 1229;
           market Market_1;
        //use_predictive_bidding 1;
        use_override ON;
       override power_state;
           bid_mode ON;
           control_mode RAMP;
           slider_setting 0.500;
           base_setpoint cooling3*1;
           period 900;
           average_target current_price_mean_30min;           standard_deviation_target current_price_stdev_30min;           target air_temperature;
           setpoint cooling_setpoint;
           demand last_cooling_load;
           deadband thermostat_deadband;
           total hvac_load;
           load hvac_load;
           state power_state;
           range_high 5;
           range_low -3;
       };

     thermal_integrity_level 5;
     air_temperature 70;
     mass_temperature 70;
     cooling_COP 3.2;
     object ZIPload {
           base_power LIGHTS*1.48;
           schedule_skew 1229;
           heatgain_fraction 0.9;
           power_pf 1.000;
           current_pf 1.000;
           impedance_pf 1.000;
           impedance_fraction 0.300000;
           current_fraction 0.300000;
           power_fraction 0.400000;
     };
     object waterheater {
          schedule_skew 1229;
          tank_volume 50;
          heating_element_capacity 4.7 kW;
          tank_setpoint 134.8;
          temperature 135;
          thermostat_deadband 4.4;
          location INSIDE;
          tank_UA 2.3;
          demand water15*1;
  object controller {
    schedule_skew 1229;
   market Market_1;
      bid_mode ON;
      control_mode RAMP;
      resolve_mode DEADBAND;
      period 900;
           average_target current_price_mean_30min;           standard_deviation_target current_price_stdev_30min;  target inlet_water_temperature;
  setpoint tank_setpoint;
  demand actual_load;
           deadband thermostat_deadband;
  total actual_load;
 load actual_load;
  };
  };
}

object triplex_line {
       name tl_A_5_671;
       phases AS;
       from tn_A_671;
       to tm_A_5_671;
       length 14.25;
       configuration trip_line_config;
       groupid Triplex_Line;
}

object triplex_meter {
       name tm_A_5_671;
       phases AS;
       nominal_voltage 120;
       groupid House_Meter;
}

object house  {
     parent tm_A_5_671;
     name house 5A_tm_A_5_671;
     floor_area 2204;
     schedule_skew -1539;
     heating_system_type HEAT_PUMP;
     heating_COP 2.4;
     cooling_system_type ELECTRIC;

     object controller {
           schedule_skew -1539;
           market Market_1;
           bid_mode ON;
        //use_predictive_bidding 1;
        use_override ON;
       override power_state;
           control_mode DOUBLE_RAMP;
           resolve_mode DEADBAND;
           slider_setting_heat 0.500;
           slider_setting_cool 0.500;
           heating_base_setpoint heating7*1;
           cooling_base_setpoint cooling3*1;
           period 900;
           average_target current_price_mean_30min;           standard_deviation_target current_price_stdev_30min;           target air_temperature;
           heating_setpoint heating_setpoint;
           heating_demand last_heating_load;
           cooling_setpoint cooling_setpoint;
           cooling_demand last_cooling_load;
           deadband thermostat_deadband;
           total hvac_load;
           load hvac_load;
           state power_state;
       };

     thermal_integrity_level 5;
     air_temperature 70;
     mass_temperature 70;
     cooling_COP 3.9;
     object ZIPload {
           base_power LIGHTS*0.91;
           schedule_skew -1539;
           heatgain_fraction 0.9;
           power_pf 1.000;
           current_pf 1.000;
           impedance_pf 1.000;
           impedance_fraction 0.300000;
           current_fraction 0.300000;
           power_fraction 0.400000;
     };
     object waterheater {
          schedule_skew -1539;
          tank_volume 50;
          heating_element_capacity 4.4 kW;
          tank_setpoint 134.8;
          temperature 135;
          thermostat_deadband 3.5;
          location INSIDE;
          tank_UA 2.1;
          demand water10*1;
  object controller {
    schedule_skew -1539;
   market Market_1;
      bid_mode ON;
      control_mode RAMP;
      resolve_mode DEADBAND;
      period 900;
           average_target current_price_mean_30min;           standard_deviation_target current_price_stdev_30min;  target inlet_water_temperature;
  setpoint tank_setpoint;
  demand actual_load;
           deadband thermostat_deadband;
  total actual_load;
 load actual_load;
  };
  };
}

object triplex_line {
       name tl_A_6_671;
       phases AS;
       from tn_A_671;
       to tm_A_6_671;
       length 16.86;
       configuration trip_line_config;
       groupid Triplex_Line;
}

object triplex_meter {
       name tm_A_6_671;
       phases AS;
       nominal_voltage 120;
...